reduced_networks/european_lv/91pct/dss/Branches.dss
! Radial Kron-equivalent series elements
new Reactor.kr_2_3 phases=3 bus1=1.1.2.3 bus2=5.1.2.3 rmatrix=[0.001130561829000005 | 0.0004994847630000027 0.001130561829000007 | 0.0004994847630000035 0.0004994847630000059 0.001130561829000005] xmatrix=[0.0001061228250000006 | 5.659884000001034e-06 0.0001061228250000016 | 5.659884000000355e-06 5.659883999999823e-06 0.0001061228250000008]
new Reactor.kr_3_4 phases=3 bus1=5.1.2.3 bus2=15.1.2.3 rmatrix=[0.01217026412999971 | 0.005376850110000138 0.01217026413000029 | 0.005376850109999881 0.005376850109999707 0.0121702641299999] xmatrix=[0.001142390249999947 | 6.092747999990549e-05 0.001142390249999941 | 6.092748000015409e-05 6.092748000005631e-05 0.001142390250000073]
new Reactor.kr_4_5 phases=3 bus1=15.1.2.3 bus2=16.1.2.3 rmatrix=[0.0003832638000000001 | 1.847843387851544e-19 0.0003832638 | -1.284149486609904e-19 1.355252715606881e-20 0.0003832638000000001] xmatrix=[9.557459999999993e-06 | -4.65818029223216e-20 9.557459999999941e-06 | 3.711870011987125e-20 -4.743384504624082e-20 9.557459999999968e-06]
new Reactor.kr_4_6 phases=3 bus1=15.1.2.3 bus2=23.1.2.3 rmatrix=[0.003532378999999999 | 0.00156061299999999 0.003532378999999997 | 0.001560612999999985 0.001560612999999975 0.003532379000000003] xmatrix=[0.0003315750000000022 | 1.768399999999995e-05 0.0003315750000000039 | 1.76839999999996e-05 1.768399999999752e-05 0.0003315749999999991]
new Reactor.kr_5_10 phases=3 bus1=16.1.2.3 bus2=56.1.2.3 rmatrix=[0.002962731600000032 | -8.953234650795389e-17 0.002962731599999904 | 6.727169649606317e-17 -4.553649124439119e-18 0.002962731599999982] xmatrix=[7.388172000005593e-05 | -1.063206509990904e-17 7.38817199999498e-05 | -1.303050383300661e-17 6.06069014419397e-17 7.388171999998675e-05]
new Reactor.kr_6_7 phases=3 bus1=23.1.2.3 bus2=28.1.2.3 rmatrix=[0.008600515900003687 | 0.003799727300002938 0.008600515900004293 | 0.003799727300004528 0.003799727300004793 0.008600515900002017] xmatrix=[0.000807307499998949 | 4.305639999745226e-05 0.0008073074999977261 | 4.305639999826016e-05 4.305639999713554e-05 0.0008073074999984027]
new Reactor.kr_7_8 phases=3 bus1=28.1.2.3 bus2=37.1.2.3 rmatrix=[0.00853188179999935 | 0.00376940459999959 0.008531881799999719 | 0.003769404599999555 0.003769404600000129 0.008531881799999797] xmatrix=[0.0008008650000005306 | 4.271279999955142e-05 0.0008008650000006862 | 4.271280000082192e-05 4.271280000125847e-05 0.0008008650000017233]
new Reactor.kr_8_9 phases=3 bus1=37.1.2.3 bus2=53.1.2.3 rmatrix=[0.008295921120000273 | 0.003665156640000662 0.008295921120000157 | 0.003665156640000847 0.00366515663999976 0.008295921120000351] xmatrix=[0.0007787159999995195 | 4.15315199994701e-05 0.0007787159999991972 | 4.153151999919398e-05 4.153151999965361e-05 0.0007787160000006651]
new Reactor.kr_8_11 phases=3 bus1=37.1.2.3 bus2=81.1.2.3 rmatrix=[0.0004912919679999966 | 0.0002230206960000003 0.0004912919679999986 | 0.0002230206959999968 0.0002230206959999975 0.0004912919679999968] xmatrix=[0.0001152812293333313 | 5.386973333334669e-06 0.0001152812293333364 | 5.386973333330365e-06 5.38697333333186e-06 0.0001152812293333308]
new Reactor.kr_9_12 phases=3 bus1=53.1.2.3 bus2=101.1.2.3 rmatrix=[0.01288333167999681 | 0.005691884960014706 0.0128833316800059 | 0.005691884960013837 0.005691884960009518 0.01288333168000913] xmatrix=[0.001209323999998764 | 6.449727998881287e-05 0.001209323999992845 | 6.44972800021848e-05 6.449727999855192e-05 0.001209324000003628]
new Reactor.kr_11_13 phases=3 bus1=81.1.2.3 bus2=112.1.2.3 rmatrix=[0.005988895759999984 | 0.002718643469999806 0.005988895759999889 | 0.002718643470000026 0.002718643470000032 0.005988895759999897] xmatrix=[0.001405289136667115 | 6.566771666683706e-05 0.001405289136666831 | 6.566771666685052e-05 6.566771666677593e-05 0.001405289136666809]
new Reactor.kr_12_14 phases=3 bus1=101.1.2.3 bus2=114.1.2.3 rmatrix=[0.007029538079999797 | 0.003105665759999721 0.007029538079999926 | 0.003105665760000139 0.003105665759999771 0.007029538079999721] xmatrix=[0.0006598439999999402 | 3.51916799997235e-05 0.0006598440000000658 | 3.519168000011667e-05 3.519167999994238e-05 0.0006598439999999427]
new Reactor.kr_12_15 phases=3 bus1=101.1.2.3 bus2=116.1.2.3 rmatrix=[0.0004060456866666647 | 0.000187908466666666 0.0004060456866666635 | 0.000187908466666666 0.000187908466666665 0.0004060456866666658] xmatrix=[0.0001723855933333325 | 6.944443333334913e-06 0.0001723855933333337 | 6.944443333333487e-06 6.944443333334216e-06 0.000172385593333334]
new Reactor.kr_14_16 phases=3 bus1=114.1.2.3 bus2=117.1.2.3 rmatrix=[0.0001831610666666665 | 8.476266666666667e-05 0.0001831610666666667 | 8.476266666666657e-05 8.476266666666655e-05 0.0001831610666666666] xmatrix=[7.776053333333312e-05 | 3.132533333333054e-06 7.776053333333286e-05 | 3.132533333333408e-06 3.132533333333082e-06 7.776053333333376e-05]
new Reactor.kr_14_19 phases=3 bus1=114.1.2.3 bus2=153.1.2.3 rmatrix=[0.00859960005666627 | 0.003908909116666306 0.008599600056666342 | 0.003908909116666286 0.003908909116666406 0.008599600056666368] xmatrix=[0.001283948250000053 | 3.423861999999691e-05 0.001283948250000144 | 3.423862000007584e-05 3.42386200001489e-05 0.001283948250000066]
new Reactor.kr_15_21 phases=3 bus1=116.1.2.3 bus2=163.1.2.3 rmatrix=[0.002900589743333362 | 0.001342325233333307 0.002900589743333313 | 0.001342325233333318 0.001342325233333343 0.002900589743333323] xmatrix=[0.001231437496666657 | 4.960767166664843e-05 0.001231437496666672 | 4.960767166668506e-05 4.960767166669496e-05 0.001231437496666678]
new Reactor.kr_16_17 phases=3 bus1=117.1.2.3 bus2=127.1.2.3 rmatrix=[0.0005081178899999978 | 0.000235145099999999 0.0005081178899999984 | 0.0002351451000000003 0.0002351450999999992 0.0005081178900000008] xmatrix=[0.0002157200700000002 | 8.690145000000439e-06 0.0002157200699999996 | 8.690145000000332e-06 8.690144999999603e-06 0.0002157200699999994]
new Reactor.kr_16_20 phases=3 bus1=117.1.2.3 bus2=156.1.2.3 rmatrix=[0.005152782100000023 | -8.80663335332283e-17 0.00515278209999968 | -1.486743465911481e-16 -3.924269763311283e-16 0.005152782100000186] xmatrix=[0.0001284950700000104 | -4.344348255658107e-17 0.00012849506999997 | -4.43637633915336e-17 1.96186383111252e-16 0.0001284950700003995]
new Reactor.kr_17_18 phases=3 bus1=127.1.2.3 bus2=145.1.2.3 rmatrix=[0.002666338733333328 | 0.001233919333333319 0.002666338733333319 | 0.001233919333333345 0.001233919333333359 0.002666338733333339] xmatrix=[0.001131986866666661 | 4.560136666668924e-05 0.001131986866666699 | 4.56013666666787e-05 4.560136666669921e-05 0.001131986866666673]
new Reactor.kr_17_23 phases=3 bus1=127.1.2.3 bus2=211.1.2.3 rmatrix=[0.009110208333333437 | 0.0001301458333327377 0.009110208333334311 | 0.0001301458333335971 0.0001301458333327767 0.009110208333333467] xmatrix=[0.0006871699999998078 | 7.500552296349685e-16 0.0006871699999996151 | 1.05025600709022e-16 -1.220811646218678e-16 0.000687170000000042]
new Reactor.kr_18_22 phases=3 bus1=145.1.2.3 bus2=166.1.2.3 rmatrix=[0.002705750833333317 | 0.001252158333333332 0.002705750833333328 | 0.001252158333333322 0.001252158333333323 0.002705750833333386] xmatrix=[0.001148719166666664 | 4.627541666665865e-05 0.001148719166666655 | 4.627541666665465e-05 4.627541666664075e-05 0.001148719166666655]
new Reactor.kr_18_25 phases=3 bus1=145.1.2.3 bus2=239.1.2.3 rmatrix=[0.009747698333334847 | 0.0001392528333347945 0.009747698333332975 | 0.0001392528333336749 0.0001392528333332632 0.009747698333333174] xmatrix=[0.0007352549600007063 | 4.513872458094606e-16 0.0007352549599989398 | 7.169969747609528e-16 -5.338611497318624e-16 0.000735254960000611]
new Reactor.kr_19_27 phases=3 bus1=153.1.2.3 bus2=247.1.2.3 rmatrix=[0.005559589236666949 | 0.002527086016666992 0.005559589236666867 | 0.002527086016666851 0.002527086016666754 0.005559589236666977] xmatrix=[0.0008300647500000056 | 2.213505999999377e-05 0.000830064749999815 | 2.213506000013866e-05 2.213505999999798e-05 0.0008300647500002663]
new Reactor.kr_21_26 phases=3 bus1=163.1.2.3 bus2=242.1.2.3 rmatrix=[0.0178632593999936 | 0.0007764485000101163 0.01786325940000508 | 0.0007764485000147453 0.0007764484999932975 0.01786325940001] xmatrix=[0.001753163733326394 | 1.987753333987256e-05 0.001753163733327669 | 1.987753334559209e-05 1.987753331995673e-05 0.001753163733332069]
new Reactor.kr_22_24 phases=3 bus1=166.1.2.3 bus2=212.1.2.3 rmatrix=[0.0008454914300000017 | 0.0003912737000000024 0.0008454914299999912 | 0.0003912737000000007 0.0003912737000000001 0.0008454914300000084] xmatrix=[0.0003589510899999905 | 1.446011500000594e-05 0.0003589510900000007 | 1.446011499998636e-05 1.446011499998791e-05 0.0003589510899999734]
new Reactor.kr_22_28 phases=3 bus1=166.1.2.3 bus2=253.1.2.3 rmatrix=[0.009221438333333009 | 0.0001317348333328576 0.009221438333333111 | 0.0001317348333336558 0.000131734833333276 0.00922143833333312] xmatrix=[0.0006955599199997285 | 3.284488971569088e-17 0.0006955599200001649 | 2.204502180288927e-16 1.563419532724097e-16 0.0006955599199996676]
new Reactor.kr_27_29 phases=3 bus1=247.1.2.3 bus2=263.1.2.3 rmatrix=[0.00204428568666667 | 0.0009292207666666692 0.002044285686666668 | 0.0009292207666666693 0.0009292207666666658 0.002044285686666672] xmatrix=[0.0003052185000000023 | 8.139159999999975e-06 0.0003052185000000013 | 8.139160000003749e-06 8.139160000004671e-06 0.0003052184999999997]
new Reactor.kr_27_34 phases=3 bus1=247.1.2.3 bus2=328.1.2.3 rmatrix=[0.01051019666666717 | 0.0001501456666663242 0.01051019666666609 | 0.0001501456666665743 0.0001501456666665527 0.01051019666666668] xmatrix=[0.0007927691200001911 | -4.404448520330915e-16 0.0007927691199998994 | 5.748546426649611e-16 -3.593045999616962e-16 0.0007927691200005165]
new Reactor.kr_29_30 phases=3 bus1=263.1.2.3 bus2=271.1.2.3 rmatrix=[0.004963816666666664 | 7.091166666665381e-05 0.004963816666666671 | 7.091166666666252e-05 7.09116666666623e-05 0.004963816666666667] xmatrix=[0.0003744135999999939 | -1.229701715297339e-17 0.0003744136000000061 | 1.051394421558542e-17 4.011548038196366e-18 0.0003744135999999963]
new Reactor.kr_29_31 phases=3 bus1=263.1.2.3 bus2=280.1.2.3 rmatrix=[0.002507296366666662 | 0.001139680166666667 0.002507296366666667 | 0.001139680166666667 0.001139680166666665 0.002507296366666676] xmatrix=[0.000374347499999998 | 9.982599999999283e-06 0.0003743474999999944 | 9.982599999997166e-06 9.982599999992683e-06 0.0003743475000000081]
new Reactor.kr_31_32 phases=3 bus1=280.1.2.3 bus2=310.1.2.3 rmatrix=[0.006910616203333354 | 0.003050657093333263 0.006910616203333205 | 0.003050657093333457 0.003050657093333425 0.006910616203333441] xmatrix=[0.0006611585966666477 | 4.389434666667328e-05 0.0006611585966666601 | 4.389434666663055e-05 4.389434666663702e-05 0.0006611585966666456]
new Reactor.kr_31_33 phases=3 bus1=280.1.2.3 bus2=311.1.2.3 rmatrix=[0.002946190023333337 | 0.00133917728333334 0.002946190023333337 | 0.001339177283333348 0.001339177283333336 0.002946190023333372] xmatrix=[0.0004398757500000043 | 1.173001999999576e-05 0.0004398757499999965 | 1.173002000000958e-05 1.173002000000821e-05 0.0004398757500000139]
new Reactor.kr_32_35 phases=3 bus1=310.1.2.3 bus2=332.1.2.3 rmatrix=[0.01457014789999734 | 0.00643191920000321 0.01457014790000121 | 0.006431919200001802 0.00643191919999832 0.01457014790000335] xmatrix=[0.001393968099998521 | 9.254559999850891e-05 0.001393968099999233 | 9.254559999965138e-05 9.254559999914507e-05 0.001393968100000875]
new Reactor.kr_32_37 phases=3 bus1=310.1.2.3 bus2=360.1.2.3 rmatrix=[0.01060795166666713 | 0.0001515421666671666 0.01060795166666658 | 0.0001515421666669788 0.0001515421666673171 0.01060795166666635] xmatrix=[0.0008001426399999788 | -1.142589626417696e-16 0.0008001426400010775 | 4.270626468938796e-16 -3.699297812520541e-16 0.0008001426399989972]
new Reactor.kr_33_38 phases=3 bus1=311.1.2.3 bus2=373.1.2.3 rmatrix=[0.0007217043093333322 | 0.0003280474133333325 0.0007217043093333395 | 0.0003280474133333306 0.0003280474133333331 0.0007217043093333387] xmatrix=[0.0001077528000000013 | 2.873407999996234e-06 0.0001077528000000036 | 2.873407999997853e-06 2.873408000001674e-06 0.000107752800000003]
new Reactor.kr_35_36 phases=3 bus1=332.1.2.3 bus2=356.1.2.3 rmatrix=[0.01245857666666738 | 0.0001779796666688251 0.01245857666666617 | 0.000177979666665039 0.0001779796666675757 0.01245857666666592] xmatrix=[0.0009397326400011307 | -1.400896131609204e-15 0.0009397326399992376 | -4.598077108512076e-16 3.165870343657673e-16 0.0009397326400017868]
new Reactor.kr_35_40 phases=3 bus1=332.1.2.3 bus2=390.1.2.3 rmatrix=[0.007414273459999906 | 0.003272994080000058 0.007414273460000233 | 0.003272994079999983 0.003272994080000138 0.007414273460000131] xmatrix=[0.0007093449399999169 | 4.709344000022298e-05 0.0007093449400002648 | 4.709343999973632e-05 4.709343999963591e-05 0.000709344939999807]
new Reactor.kr_38_39 phases=3 bus1=373.1.2.3 bus2=379.1.2.3 rmatrix=[0.00164675 | 2.352500000000037e-05 0.00164675 | 2.352500000000006e-05 2.352499999999972e-05 0.00164675] xmatrix=[0.0001242119999999998 | -4.053429107777869e-20 0.0001242120000000008 | 2.623832284082307e-19 -9.486769009248164e-20 0.000124212]
new Reactor.kr_38_41 phases=3 bus1=373.1.2.3 bus2=391.1.2.3 rmatrix=[0.003702754256666671 | 0.001683070116666678 0.003702754256666673 | 0.001683070116666676 0.001683070116666669 0.003702754256666668] xmatrix=[0.000552833249999994 | 1.474222000000344e-05 0.0005528332499999816 | 1.474221999999761e-05 1.474221999998726e-05 0.0005528332500000163]
new Reactor.kr_39_45 phases=3 bus1=379.1.2.3 bus2=423.1.2.3 rmatrix=[0.01613802166666498 | 0.0002305431666679556 0.01613802166666362 | 0.0002305431666687476 0.0002305431666700802 0.01613802166666678] xmatrix=[0.001217267919999825 | -1.18306671575164e-15 0.001217267919998885 | -4.523908490862571e-15 3.660266534311063e-16 0.001217267919996661]
new Reactor.kr_39_46 phases=3 bus1=379.1.2.3 bus2=452.1.2.3 rmatrix=[0.01929294499999712 | 0.0002756135000022178 0.01929294500000209 | 0.0002756134999988588 0.0002756135000118965 0.01929294499999996] xmatrix=[0.001455239279995537 | -1.326713214639531e-14 0.001455239279999457 | -2.113993465663179e-15 8.561727715683531e-15 0.001455239280004068]
new Reactor.kr_40_47 phases=3 bus1=390.1.2.3 bus2=453.1.2.3 rmatrix=[0.02421033571001312 | 0.0106875320799981 0.02421033570999968 | 0.01068753208000723 0.01068753208000387 0.02421033571000529] xmatrix=[0.002316272690005368 | 0.0001537774400011729 0.00231627268999961 | 0.0001537774400004977 0.0001537774400004208 0.002316272689999435]
new Reactor.kr_41_42 phases=3 bus1=391.1.2.3 bus2=396.1.2.3 rmatrix=[0.004736783333333334 | 6.766833333333385e-05 0.004736783333333366 | 6.766833333333224e-05 6.766833333333987e-05 0.004736783333333361] xmatrix=[0.0003572888000000005 | -1.773761081789366e-18 0.000357288800000014 | -1.401035691406134e-19 1.05574186545776e-17 0.0003572888000000081]
new Reactor.kr_41_43 phases=3 bus1=391.1.2.3 bus2=403.1.2.3 rmatrix=[0.002144159600000002 | 0.0009746180000000002 0.0021441596 | 0.0009746179999999995 0.0009746179999999957 0.002144159599999998] xmatrix=[0.0003201299999999915 | 8.536799999991651e-06 0.0003201299999999888 | 8.536799999993027e-06 8.536799999989765e-06 0.0003201299999999908]
new Reactor.kr_42_48 phases=3 bus1=396.1.2.3 bus2=471.1.2.3 rmatrix=[0.006069350000000159 | 8.670499999987216e-05 0.006069350000000088 | 8.670499999998764e-05 8.670500000000398e-05 0.006069349999999844] xmatrix=[0.0004578024000000939 | 1.160662821071552e-16 0.0004578024000000615 | -2.772852873104448e-17 8.565197162635485e-17 0.0004578023999999871]
new Reactor.kr_43_44 phases=3 bus1=403.1.2.3 bus2=409.1.2.3 rmatrix=[0.002105128300000003 | 0.0009568764999999997 0.002105128299999995 | 0.0009568765000000021 0.0009568764999999945 0.002105128299999995] xmatrix=[0.0003143025000000021 | 8.381399999997819e-06 0.0003143025000000038 | 8.38140000000387e-06 8.381400000006596e-06 0.0003143024999999948]
new Reactor.kr_43_50 phases=3 bus1=403.1.2.3 bus2=480.1.2.3 rmatrix=[0.0005324979476666664 | 0.0002420445216666607 0.0005324979476666561 | 0.0002420445216666625 0.0002420445216666572 0.0005324979476666572] xmatrix=[7.95036750000006e-05 | 2.12009799999927e-06 7.950367499999862e-05 | 2.120097999999018e-06 2.120097999997071e-06 7.950367499999722e-05]
new Reactor.kr_44_51 phases=3 bus1=409.1.2.3 bus2=487.1.2.3 rmatrix=[0.004405654219999923 | 0.002002570099999908 0.004405654219999965 | 0.002002570099999878 0.002002570099999907 0.004405654219999959] xmatrix=[0.0006577784999999621 | 1.754075999995748e-05 0.0006577784999999869 | 1.754075999999051e-05 1.754075999996425e-05 0.0006577784999999937]
new Reactor.kr_47_49 phases=3 bus1=453.1.2.3 bus2=475.1.2.3 rmatrix=[0.01139788723333534 | 0.005031540533334749 0.01139788723333551 | 0.005031540533334902 0.005031540533334049 0.01139788723333667] xmatrix=[0.001090468766669633 | 7.23962666682083e-05 0.001090468766669168 | 7.239626666913387e-05 7.23962666695151e-05 0.001090468766669358]
new Reactor.kr_47_54 phases=3 bus1=453.1.2.3 bus2=546.1.2.3 rmatrix=[0.01320118333333447 | 0.0001885883333351161 0.01320118333333666 | 0.0001885883333337877 0.0001885883333333739 0.01320118333333201] xmatrix=[0.0009957464000019611 | 1.102660769494184e-15 0.0009957464000025758 | -1.928537767503107e-15 -1.201729687982933e-15 0.0009957463999996242]
new Reactor.kr_49_52 phases=3 bus1=475.1.2.3 bus2=508.1.2.3 rmatrix=[0.0134838543399948 | 0.005952380319997586 0.01348385434000834 | 0.005952380319997534 0.005952380320002929 0.0134838543400026] xmatrix=[0.00129003925999724 | 8.564575999762372e-05 0.001290039259997335 | 8.564576000066007e-05 8.564575999888443e-05 0.001290039260001279]
new Reactor.kr_51_56 phases=3 bus1=487.1.2.3 bus2=578.1.2.3 rmatrix=[0.006036183512333344 | 0.002743719778333525 0.006036183512333311 | 0.002743719778333639 0.002743719778333211 0.006036183512333507] xmatrix=[0.0009012218250000561 | 2.403258200001955e-05 0.0009012218250001899 | 2.403258200012567e-05 2.403258200038176e-05 0.0009012218249999809]
new Reactor.kr_52_53 phases=3 bus1=508.1.2.3 bus2=544.1.2.3 rmatrix=[0.01243482333333441 | 0.0001776403333321695 0.01243482333333245 | 0.0001776403333338871 0.0001776403333333268 0.01243482333333309] xmatrix=[0.0009379409600008222 | 1.272172730809018e-15 0.000937940960001377 | -2.964524801292803e-16 7.225123277443402e-16 0.0009379409600008227]
new Reactor.kr_52_55 phases=3 bus1=508.1.2.3 bus2=559.1.2.3 rmatrix=[0.01087317953333409 | 0.004799910933334615 0.01087317953333352 | 0.004799910933335004 0.004799910933334066 0.01087317953333534] xmatrix=[0.001040268466667564 | 6.90634666675064e-05 0.001040268466666833 | 6.906346666814485e-05 6.906346666723444e-05 0.001040268466667977]
new Reactor.kr_55_58 phases=3 bus1=559.1.2.3 bus2=621.1.2.3 rmatrix=[0.01232933333333566 | 0.0001761333333352744 0.01232933333333221 | 0.0001761333333377007 0.0001761333333338758 0.01232933333332757] xmatrix=[0.0009299839999997405 | 1.47862286202442e-15 0.0009299839999973762 | 1.833377643915643e-16 2.72405795836983e-15 0.0009299839999968151]
new Reactor.kr_55_59 phases=3 bus1=559.1.2.3 bus2=627.1.2.3 rmatrix=[0.001276429359333386 | 0.0005634733813333589 0.001276429359333294 | 0.0005634733813334119 0.0005634733813333333 0.001276429359333387] xmatrix=[0.0001221196806666387 | 8.107530666667026e-06 0.000122119680666695 | 8.10753066664234e-06 8.107530666660878e-06 0.0001221196806666158]
new Reactor.kr_56_57 phases=3 bus1=578.1.2.3 bus2=615.1.2.3 rmatrix=[0.006964113236666467 | 0.003165506016666567 0.006964113236666407 | 0.003165506016666492 0.003165506016666407 0.006964113236666693] xmatrix=[0.001039764749999957 | 2.77270599998451e-05 0.001039764749999732 | 2.772705999988648e-05 2.772705999983199e-05 0.001039764749999813]
new Reactor.kr_56_60 phases=3 bus1=578.1.2.3 bus2=658.1.2.3 rmatrix=[0.007880527666666755 | 0.0001125789666664012 0.007880527666666498 | 0.0001125789666666519 0.0001125789666667489 0.00788052766666688] xmatrix=[0.000594416944000255 | 1.706590440802362e-16 0.0005944169439999489 | -6.253283914738683e-18 -3.029260869924499e-16 0.0005944169440002245]
new Reactor.kr_57_61 phases=3 bus1=615.1.2.3 bus2=659.1.2.3 rmatrix=[0.005553730000000022 | 7.933900000022453e-05 0.005553729999999764 | 7.93390000001892e-05 7.933900000008196e-05 0.005553729999999738] xmatrix=[0.0004189099199999498 | 1.654586470811914e-16 0.0004189099200000864 | 1.38443637866662e-16 -8.239936510889834e-18 0.0004189099200001549]
new Reactor.kr_57_62 phases=3 bus1=615.1.2.3 bus2=666.1.2.3 rmatrix=[0.001356877683333342 | 0.0006167625833333324 0.001356877683333339 | 0.0006167625833333386 0.0006167625833333421 0.00135687768333336] xmatrix=[0.0002025862499999872 | 5.402299999983304e-06 0.0002025862499999839 | 5.402299999981702e-06 5.402299999983643e-06 0.0002025862500000036]
new Reactor.kr_60_69 phases=3 bus1=658.1.2.3 bus2=721.1.2.3 rmatrix=[0.003855897499999941 | 5.50842500000363e-05 0.003855897500000057 | 5.508424999994614e-05 5.508424999998204e-05 0.003855897500000014] xmatrix=[0.0002908448399999732 | -2.977885537125998e-17 0.0002908448399999433 | 2.670828680005554e-17 1.951563910473908e-18 0.0002908448399999904]
new Reactor.kr_62_63 phases=3 bus1=666.1.2.3 bus2=672.1.2.3 rmatrix=[0.0005601166666666674 | 8.001666666666834e-06 0.0005601166666666669 | 8.001666666667014e-06 8.001666666666363e-06 0.0005601166666666668] xmatrix=[4.224880000000003e-05 | 2.833579615759945e-20 4.224879999999971e-05 | -9.158880512066694e-21 -1.626303258728257e-19 4.224879999999991e-05]
new Reactor.kr_62_64 phases=3 bus1=666.1.2.3 bus2=686.1.2.3 rmatrix=[0.004837274090000008 | 0.002198760949999998 0.004837274090000006 | 0.002198760950000011 0.002198760950000018 0.004837274089999996] xmatrix=[0.0007222207500000103 | 1.92592200000071e-05 0.0007222207500000302 | 1.925922000001565e-05 1.925922000004166e-05 0.0007222207499999945]
new Reactor.kr_63_71 phases=3 bus1=672.1.2.3 bus2=736.1.2.3 rmatrix=[0.01336408499999998 | 0.0001909155000001126 0.01336408499999995 | 0.0001909155000001425 0.0001909154999998105 0.01336408500000016] xmatrix=[0.001008033840000269 | 2.819256648430392e-17 0.001008033840000221 | -4.181497801621076e-17 -1.305379415672547e-16 0.001008033839999891]
new Reactor.kr_64_65 phases=3 bus1=686.1.2.3 bus2=703.1.2.3 rmatrix=[0.008402920900000057 | 0.003793109500000065 0.008402920900000006 | 0.003793109500000431 0.003793109500000372 0.008402920900000393] xmatrix=[0.00114650750000003 | 3.823220000005273e-05 0.001146507500000127 | 3.823220000022483e-05 3.823220000022647e-05 0.001146507500000288]
new Reactor.kr_64_66 phases=3 bus1=686.1.2.3 bus2=706.1.2.3 rmatrix=[0.01084718833333301 | 0.0001549598333337149 0.01084718833333383 | 0.0001549598333331196 0.0001549598333328572 0.01084718833333285] xmatrix=[0.0008181879199999336 | -3.847772109857232e-16 0.000818187919999941 | -2.229028312125663e-16 4.132978681514743e-16 0.0008181879199996257]
new Reactor.kr_65_67 phases=3 bus1=703.1.2.3 bus2=707.1.2.3 rmatrix=[0.005315761733333265 | 0.002346616533333316 0.005315761733333309 | 0.002346616533333405 0.002346616533333405 0.00531576173333353] xmatrix=[0.0005085742666666382 | 3.376426666657132e-05 0.0005085742666664483 | 3.376426666659557e-05 3.376426666649708e-05 0.0005085742666665967]
new Reactor.kr_65_73 phases=3 bus1=703.1.2.3 bus2=749.1.2.3 rmatrix=[0.0006839916269999957 | 0.0003019446959999933 0.0006839916269999981 | 0.000301944695999996 0.0003019446959999983 0.0006839916269999999] xmatrix=[6.543945299999908e-05 | 4.34452799999747e-06 6.543945299999824e-05 | 4.344527999998575e-06 4.344527999999406e-06 6.543945300000095e-05]
new Reactor.kr_67_68 phases=3 bus1=707.1.2.3 bus2=718.1.2.3 rmatrix=[0.01280147403333374 | 0.005651146933333533 0.01280147403333362 | 0.00565114693333363 0.005651146933333686 0.01280147403333392] xmatrix=[0.001224753966667004 | 8.131146666704243e-05 0.00122475396666674 | 8.131146666691246e-05 8.131146666666075e-05 0.001224753966666807]
new Reactor.kr_67_75 phases=3 bus1=707.1.2.3 bus2=783.1.2.3 rmatrix=[0.007038138333333269 | 0.0001005448333333462 0.00703813833333326 | 0.0001005448333332916 0.0001005448333333699 0.007038138333333408] xmatrix=[0.0005308767199997482 | 1.804256423019113e-16 0.0005308767199997393 | -3.100508991256558e-18 -2.057815723377487e-16 0.0005308767200000416]
new Reactor.kr_68_70 phases=3 bus1=718.1.2.3 bus2=732.1.2.3 rmatrix=[0.01236829999999982 | 0.0001766899999994334 0.01236829999999955 | 0.0001766900000006363 0.000176689999999372 0.0123682999999995] xmatrix=[0.0009329231999999888 | -8.970634450348663e-16 0.0009329231999998907 | 5.413597261535211e-16 1.257999780734931e-15 0.0009329231999997069]
new Reactor.kr_68_72 phases=3 bus1=718.1.2.3 bus2=745.1.2.3 rmatrix=[0.0142800430666661 | 0.006303853866665877 0.01428004306666636 | 0.006303853866666403 0.006303853866666639 0.01428004306666635] xmatrix=[0.001366212933332927 | 9.07029333331517e-05 0.001366212933333169 | 9.070293333358247e-05 9.070293333310266e-05 0.001366212933333332]
new Reactor.kr_71_77 phases=3 bus1=736.1.2.3 bus2=824.1.2.3 rmatrix=[0.005300283333333488 | 7.571833333326938e-05 0.005300283333333261 | 7.571833333328602e-05 7.571833333339627e-05 0.005300283333333311] xmatrix=[0.0003997928000000786 | -1.747026680029677e-16 0.0003997927999998903 | -1.794427211340842e-17 -5.898059818321144e-17 0.0003997927999999573]
new Reactor.kr_72_74 phases=3 bus1=745.1.2.3 bus2=754.1.2.3 rmatrix=[0.006909816666666668 | 9.871166666670913e-05 0.006909816666666723 | 9.87116666668105e-05 9.871166666691788e-05 0.006909816666666727] xmatrix=[0.0005211975999999972 | 1.259274568850662e-17 0.0005211976000000799 | 9.706589372002889e-17 2.040468488617719e-16 0.0005211975999996666]
new Reactor.kr_72_76 phases=3 bus1=745.1.2.3 bus2=794.1.2.3 rmatrix=[0.01634016523333383 | 0.007213284533334237 0.01634016523333362 | 0.007213284533333748 0.007213284533333695 0.01634016523333452] xmatrix=[0.001563310766667146 | 0.0001037882666669725 0.001563310766667376 | 0.0001037882666671934 0.0001037882666675006 0.001563310766666915]
new Reactor.kr_75_80 phases=3 bus1=783.1.2.3 bus2=859.1.2.3 rmatrix=[0.005957297499999936 | 8.510424999994131e-05 0.005957297499999983 | 8.510425000003847e-05 8.51042500000351e-05 0.005957297499999847] xmatrix=[0.0004493504399999969 | 1.074134339446699e-17 0.000449350439999973 | 2.72277150740084e-17 -1.929879867024198e-17 0.0004493504400000207]
new Reactor.kr_76_78 phases=3 bus1=794.1.2.3 bus2=826.1.2.3 rmatrix=[0.00842681873333324 | 0.003573083133333324 0.00842681873333309 | 0.003573083133332931 0.00357308313333299 0.00842681873333336] xmatrix=[0.0009019585666664179 | 6.268416666636002e-05 0.0009019585666666689 | 6.268416666643491e-05 6.268416666666715e-05 0.0009019585666668415]
new Reactor.kr_76_79 phases=3 bus1=794.1.2.3 bus2=843.1.2.3 rmatrix=[0.001681493333333336 | 2.402133333333203e-05 0.001681493333333328 | 2.40213333333333e-05 2.402133333333299e-05 0.001681493333333334] xmatrix=[0.0001268326400000003 | 4.123238835744117e-18 0.0001268326399999826 | -1.810903782523e-18 -3.530433324155924e-18 0.0001268326400000112]
new Reactor.kr_78_81 phases=3 bus1=826.1.2.3 bus2=885.1.2.3 rmatrix=[0.01827824184666834 | 0.001748990666666245 0.01827824184666773 | 0.0017489906666661 0.001748990666665611 0.01827824184666589] xmatrix=[0.00134713823333281 | 2.516533333401892e-05 0.001347138233332424 | 2.516533333395245e-05 2.516533333336802e-05 0.001347138233334023]
new Reactor.kr_79_82 phases=3 bus1=843.1.2.3 bus2=901.1.2.3 rmatrix=[0.0132414099999998 | 0.0001891630000002448 0.01324140999999998 | 0.0001891629999997573 0.0001891630000002273 0.01324141000000025] xmatrix=[0.0009987806400000375 | 2.506232745434988e-17 0.0009987806400000754 | 3.675215876800236e-16 -1.500535806719938e-16 0.0009987806400001127]
